opendss_networks/LV22_80bus/Groundings.dss
new reactor.tx_busgrounding_B557 phases=1 bus1=B557.4 bus2=B557.0 r=0.3 x=0.0
new reactor.loadbusgrounding_B829 phases=1 bus1=B829.4 bus2=B829.0 r=10.0 x=0.0
new reactor.loadbusgrounding_B1062 phases=1 bus1=B1062.4 bus2=B1062.0 r=10.0 x=0.0
new reactor.loadbusgrounding_B1710 phases=1 bus1=B1710.4 bus2=B1710.0 r=10.0 x=0.0
new reactor.loadbusgrounding_B2128 phases=1 bus1=B2128.4 bus2=B2128.0 r=10.0 x=0.0
new reactor.loadbusgrounding_B1704 phases=1 bus1=B1704.4 bus2=B1704.0 r=10.0 x=0.0
new reactor.loadbusgrounding_B947 phases=1 bus1=B947.4 bus2=B947.0 r=10.0 x=0.0
new reactor.loadbusgrounding_B2603 phases=1 bus1=B2603.4 bus2=B2603.0 r=10.0 x=0.0
new reactor.loadbusgrounding_B45 phases=1 bus1=B45.4 bus2=B45.0 r=10.0 x=0.0
new reactor.loadbusgrounding_B1060 phases=1 bus1=B1060.4 bus2=B1060.0 r=10.0 x=0.0
new reactor.loadbusgrounding_B793 phases=1 bus1=B793.4 bus2=B793.0 r=10.0 x=0.0
new reactor.loadbusgrounding_B2643 phases=1 bus1=B2643.4 bus2=B2643.0 r=10.0 x=0.0
new reactor.loadbusgrounding_B922 phases=1 bus1=B922.4 bus2=B922.0 r=10.0 x=0.0
new reactor.loadbusgrounding_B1101 phases=1 bus1=B1101.4 bus2=B1101.0 r=10.0 x=0.0
new reactor.loadbusgrounding_B1331 phases=1 bus1=B1331.4 bus2=B1331.0 r=10.0 x=0.0
new reactor.loadbusgrounding_B950 phases=1 bus1=B950.4 bus2=B950.0 r=10.0 x=0.0
new reactor.loadbusgrounding_B671 phases=1 bus1=B671.4 bus2=B671.0 r=10.0 x=0.0
new reactor.loadbusgrounding_B3263 phases=1 bus1=B3263.4 bus2=B3263.0 r=10.0 x=0.0
new reactor.loadbusgrounding_B385 phases=1 bus1=B385.4 bus2=B385.0 r=10.0 x=0.0
new reactor.loadbusgrounding_B1434 phases=1 bus1=B1434.4 bus2=B1434.0 r=10.0 x=0.0
new reactor.loadbusgrounding_B341 phases=1 bus1=B341.4 bus2=B341.0 r=10.0 x=0.0
new reactor.loadbusgrounding_B3018 phases=1 bus1=B3018.4 bus2=B3018.0 r=10.0 x=0.0
